testcases/gridlabd/ieee_118node_T/case118_full.glm
case118_full.glmclock {
	timezone PST8;
	starttime '2013-08-01 0:00:00';
	stoptime '2013-08-01 0:00:00';
}

#set double_format=%+.12lg
#set complex_format=%+.12lg%+.12lg%c

module tape;

module powerflow {
	NR_matrix_file ./tmp/full_admittance_dump.txt;
	NR_matrix_output_interval ONCE;
	NR_matrix_output_references true;
	solver_method NR;
	line_limits FALSE;
	NR_iteration_limit 100;
	line_capacitance true;
	maximum_voltage_error 1e-8;
}

//feeder file: tmp\dist_buses_102_23.glm
object meter {
	name bus102;
	phases ABC;
	nominal_voltage 79.674 kV;
	bustype PQ;
};

object transformer_configuration {
	name coupling_xfmr_config_bus102;
	connect_type DELTA_GWYE;
	install_type PADMOUNT;
	primary_voltage 138.000 kV;
	secondary_voltage 12.470 kV;
	power_rating 150000;
	powerA_rating 50000;
	powerB_rating 50000;
	powerC_rating 50000;
	resistance 0.00003;
	reactance 0.00017;
};

object transformer {
	name coupling_xfmr_bus102;
	phases ABC;
	from bus102;
	to R1-12-47-1_node_617_bus102;
	configuration coupling_xfmr_config_bus102;
};

object regulator {
	name R1-12-47-1_reg_1_bus102;
	from R1-12-47-1_node_617_bus102;
	to R1-12-47-1_meter_21_bus102;
	phases ABCN;
	configuration feeder_reg_cfg_bus102;
};

object regulator_configuration {
	name feeder_reg_cfg_bus102;
	Control OUTPUT_VOLTAGE;
	band_center 7520.0;
	band_width 120;
	connect_type WYE_WYE;
	time_delay 30;
	raise_taps 16;
	lower_taps 16;
	regulation 0.10;
	tap_pos_A 0;
	tap_pos_B 0;
	tap_pos_C 0;
};

object capacitor {
	name R1-12-47-1_cap_1_bus102;
	phases ABCN;
	pt_phase B;
	parent R1-12-47-1_node_422_bus102;
	phases_connected ABC;
	control VOLT;
	voltage_set_high 7300;
	voltage_set_low 7100;
	capacitor_A 0.15 MVAr;
	capacitor_B 0.15 MVAr;
	capacitor_C 0.15 MVAr;
	control_level INDIVIDUAL;
	switchA CLOSED;
	switchB CLOSED;
	switchC CLOSED;
	time_delay 30.0;
	dwell_time 30.0;
	cap_nominal_voltage 7220;
	nominal_voltage 7216.88;
};

object capacitor {
	name R1-12-47-1_cap_2_bus102;
	phases ABCN;
	pt_phase B;
	parent R1-12-47-1_node_216_bus102;
	phases_connected ABC;
	control VOLT;
	voltage_set_high 7300;
	voltage_set_low 7100;
	capacitor_A 0.3 MVAr;
	capacitor_B 0.3 MVAr;
	capacitor_C 0.3 MVAr;
	control_level INDIVIDUAL;
	time_delay 30.0;
	dwell_time 30.0;
	cap_nominal_voltage 7220;
	nominal_voltage 7216.88;
};

object capacitor {
	name R1-12-47-1_cap_3_bus102;
	phases CN;
	pt_phase C;
	parent R1-12-47-1_node_248_bus102;
	phases_connected C;
	control MANUAL;
	capacitor_A 0.15 MVAr;
	capacitor_B 0.15 MVAr;
	capacitor_C 0.15 MVAr;
	control_level INDIVIDUAL;
	switchA CLOSED;
	switchB CLOSED;
	switchC CLOSED;
	time_delay 30.0;
	dwell_time 30.0;
	cap_nominal_voltage 7216.88;
	nominal_voltage 7216.88;
};

object fuse {
	name R1-12-47-1_fuse_1_bus102;
	phases AN;
	from R1-12-47-1_node_596_bus102;
	to R1-12-47-1_node_599_bus102;
	current_limit 50000;
	status CLOSED;
	mean_replacement_time 3600.0;
};

object fuse {
	name R1-12-47-1_fuse_2_bus102;
	phases AN;
	from R1-12-47-1_node_594_bus102;
	to R1-12-47-1_node_595_bus102;
	current_limit 50000;
	status CLOSED;
	mean_replacement_time 3600.0;
};

object fuse {
	name R1-12-47-1_fuse_3_bus102;
	phases AN;
	from R1-12-47-1_node_508_bus102;
	to R1-12-47-1_node_510_bus102;
	current_limit 50000;
	status CLOSED;
	mean_replacement_time 3600.0;
};

object fuse {
	name R1-12-47-1_fuse_4_bus102;
	phases AN;
	from R1-12-47-1_node_503_bus102;
	to R1-12-47-1_node_511_bus102;
	current_limit 50000;
	status CLOSED;
	mean_replacement_time 3600.0;
};

object fuse {
	name R1-12-47-1_fuse_5_bus102;
	phases AN;
	from R1-12-47-1_node_512_bus102;
	to R1-12-47-1_node_513_bus102;
	current_limit 50000;
	status CLOSED;
	mean_replacement_time 3600.0;
};

object fuse {
	name R1-12-47-1_fuse_6_bus102;
	phases AN;
	from R1-12-47-1_node_474_bus102;
	to R1-12-47-1_node_477_bus102;
	current_limit 50000;
	status CLOSED;
	mean_replacement_time 3600.0;
};

object fuse {
	name R1-12-47-1_fuse_7_bus102;
	phases AN;
	from R1-12-47-1_node_474_bus102;
	to R1-12-47-1_node_480_bus102;
	current_limit 50000;
	status CLOSED;
	mean_replacement_time 3600.0;
};

object fuse {
	name R1-12-47-1_fuse_8_bus102;
	phases AN;
	from R1-12-47-1_node_522_bus102;
	to R1-12-47-1_node_524_bus102;
	current_limit 50000;
	status CLOSED;
	mean_replacement_time 3600.0;
};

object fuse {
	name R1-12-47-1_fuse_9_bus102;
	phases AN;
	from R1-12-47-1_node_576_bus102;
	to R1-12-47-1_node_577_bus102;
	current_limit 50000;
	status CLOSED;
	mean_replacement_time 3600.0;
};

object fuse {
	name R1-12-47-1_fuse_10_bus102;
	phases AN;
	from R1-12-47-1_node_515_bus102;
	to R1-12-47-1_node_518_bus102;
	current_limit 50000;
	status CLOSED;
	mean_replacement_time 3600.0;
};

object fuse {
	name R1-12-47-1_fuse_11_bus102;
	phases AN;
	from R1-12-47-1_node_580_bus102;
	to R1-12-47-1_node_581_bus102;
	current_limit 50000;
	status CLOSED;
	mean_replacement_time 3600.0;
};

object fuse {
	name R1-12-47-1_fuse_12_bus102;
	phases BN;
	from R1-12-47-1_node_562_bus102;
	to R1-12-47-1_node_574_bus102;
	current_limit 50000;
	status CLOSED;
	mean_replacement_time 3600.0;
};

object fuse {
	name R1-12-47-1_fuse_13_bus102;
	phases CN;
	from R1-12-47-1_node_561_bus102;
	to R1-12-47-1_node_567_bus102;
	current_limit 50000;
	status CLOSED;
	mean_replacement_time 3600.0;
};

object fuse {
	name R1-12-47-1_fuse_14_bus102;
	phases AN;
	from R1-12-47-1_node_485_bus102;
	to R1-12-47-1_node_487_bus102;
	current_limit 50000;
	status CLOSED;
	mean_replacement_time 3600.0;
};

object fuse {
	name R1-12-47-1_fuse_15_bus102;
	phases AN;
	from R1-12-47-1_node_560_bus102;
	to R1-12-47-1_node_566_bus102;
	current_limit 50000;
	status CLOSED;
	mean_replacement_time 3600.0;
};

object fuse {
	name R1-12-47-1_fuse_16_bus102;
	phases AN;
	from R1-12-47-1_node_569_bus102;
	to R1-12-47-1_node_570_bus102;
	current_limit 50000;
	status CLOSED;
	mean_replacement_time 3600.0;
};

object fuse {
	name R1-12-47-1_fuse_17_bus102;
	phases AN;
	from R1-12-47-1_node_496_bus102;
	to R1-12-47-1_node_498_bus102;
	current_limit 50000;
	status CLOSED;
	mean_replacement_time 3600.0;
};

object fuse {
	name R1-12-47-1_fuse_18_bus102;
	phases AN;
	from R1-12-47-1_node_490_bus102;
	to R1-12-47-1_node_492_bus102;
	current_limit 50000;
	status CLOSED;
	mean_replacement_time 3600.0;
};

object fuse {
	name R1-12-47-1_fuse_19_bus102;
	phases CN;
	from R1-12-47-1_node_559_bus102;
	to R1-12-47-1_node_563_bus102;
	current_limit 50000;
	status CLOSED;
	mean_replacement_time 3600.0;
};

object fuse {
	name R1-12-47-1_fuse_20_bus102;
	phases AN;
	from R1-12-47-1_node_417_bus102;
	to R1-12-47-1_node_418_bus102;
	current_limit 50000;
	status CLOSED;
	mean_replacement_time 3600.0;
};

object fuse {
	name R1-12-47-1_fuse_21_bus102;
	phases AN;
	from R1-12-47-1_node_552_bus102;
	to R1-12-47-1_node_553_bus102;
	current_limit 50000;
	status CLOSED;
	mean_replacement_time 3600.0;
};

object fuse {
	name R1-12-47-1_fuse_22_bus102;
	phases AN;
	from R1-12-47-1_node_461_bus102;
	to R1-12-47-1_node_466_bus102;
	current_limit 50000;
	status CLOSED;
	mean_replacement_time 3600.0;
};

object fuse {
	name R1-12-47-1_fuse_23_bus102;
	phases CN;
	from R1-12-47-1_node_551_bus102;
	to R1-12-47-1_node_555_bus102;
	current_limit 50000;
	status CLOSED;
	mean_replacement_time 3600.0;
};

object fuse {
	name R1-12-47-1_fuse_24_bus102;
	phases ABCN;
	from R1-12-47-1_node_456_bus102;
	to R1-12-47-1_node_457_bus102;
	current_limit 50000;
	status CLOSED;
	mean_replacement_time 3600.0;
};

object fuse {
	name R1-12-47-1_fuse_25_bus102;
	phases AN;
	from R1-12-47-1_node_532_bus102;
	to R1-12-47-1_node_534_bus102;
	current_limit 50000;
	status CLOSED;
	mean_replacement_time 3600.0;
};

object fuse {
	name R1-12-47-1_fuse_26_bus102;
	phases AN;
	from R1-12-47-1_node_547_bus102;
	to R1-12-47-1_node_558_bus102;
	current_limit 50000;
	status CLOSED;
	mean_replacement_time 3600.0;
};

object fuse {
	name R1-12-47-1_fuse_27_bus102;
	phases CN;
	from R1-12-47-1_node_546_bus102;
	to R1-12-47-1_node_548_bus102;
	current_limit 50000;
	status CLOSED;
	mean_replacement_time 3600.0;
};

object fuse {
	name R1-12-47-1_fuse_28_bus102;
	phases BN;
	from R1-12-47-1_node_449_bus102;
	to R1-12-47-1_node_450_bus102;
	current_limit 50000;
	status CLOSED;
	mean_replacement_time 3600.0;
};

object fuse {
	name R1-12-47-1_fuse_29_bus102;
	phases BN;
	from R1-12-47-1_node_546_bus102;
	to R1-12-47-1_node_556_bus102;
	current_limit 50000;
	status CLOSED;
	mean_replacement_time 3600.0;
};

object fuse {
	name R1-12-47-1_fuse_30_bus102;
	phases BN;
	from R1-12-47-1_node_446_bus102;
	to R1-12-47-1_node_447_bus102;
	current_limit 50000;
	status CLOSED;
	mean_replacement_time 3600.0;
};

object fuse {
	name R1-12-47-1_fuse_31_bus102;
	phases AN;
	from R1-12-47-1_node_326_bus102;
	to R1-12-47-1_node_327_bus102;
	current_limit 50000;
	status CLOSED;
	mean_replacement_time 3600.0;
};

object fuse {
	name R1-12-47-1_fuse_32_bus102;
	phases BN;
	from R1-12-47-1_node_539_bus102;
	to R1-12-47-1_node_541_bus102;
	current_limit 50000;
	status CLOSED;
	mean_replacement_time 3600.0;
};

object fuse {
	name R1-12-47-1_fuse_33_bus102;
	phases AN;
	from R1-12-47-1_node_540_bus102;
	to R1-12-47-1_node_545_bus102;
	current_limit 50000;
	status CLOSED;
	mean_replacement_time 3600.0;
};

object fuse {
	name R1-12-47-1_fuse_34_bus102;
	phases ABCN;
	from R1-12-47-1_node_434_bus102;
	to R1-12-47-1_node_435_bus102;
	current_limit 50000;
	status CLOSED;
	mean_replacement_time 3600.0;
};

object fuse {
	name R1-12-47-1_fuse_35_bus102;
	phases AN;
	from R1-12-47-1_node_355_bus102;
	to R1-12-47-1_node_356_bus102;
	current_limit 50000;
	status CLOSED;
	mean_replacement_time 3600.0;
};

object fuse {
	name R1-12-47-1_fuse_36_bus102;
	phases CN;
	from R1-12-47-1_node_359_bus102;
	to R1-12-47-1_node_419_bus102;
	current_limit 50000;
	status CLOSED;
	mean_replacement_time 3600.0;
};

object fuse {
	name R1-12-47-1_fuse_37_bus102;
	phases AN;
	from R1-12-47-1_node_229_bus102;
	to R1-12-47-1_node_232_bus102;
	current_limit 50000;
	status CLOSED;
	mean_replacement_time 3600.0;
};

object fuse {
	name R1-12-47-1_fuse_38_bus102;
	phases AN;
	from R1-12-47-1_node_538_bus102;
	to R1-12-47-1_node_543_bus102;
	current_limit 50000;
	status CLOSED;
	mean_replacement_time 3600.0;
};

object fuse {
	name R1-12-47-1_fuse_39_bus102;
	phases AN;
	from R1-12-47-1_node_543_bus102;
	to R1-12-47-1_node_544_bus102;
	current_limit 50000;
	status CLOSED;
	mean_replacement_time 3600.0;
};

object fuse {
	name R1-12-47-1_fuse_40_bus102;
	phases AN;
	from R1-12-47-1_node_342_bus102;
	to R1-12-47-1_node_354_bus102;
	current_limit 50000;
	status CLOSED;
	mean_replacement_time 3600.0;
};

object fuse {
	name R1-12-47-1_fuse_41_bus102;
	phases AN;
	from R1-12-47-1_node_335_bus102;
	to R1-12-47-1_node_336_bus102;
	current_limit 50000;
	status CLOSED;
	mean_replacement_time 3600.0;
};

object fuse {
	name R1-12-47-1_fuse_42_bus102;
	phases CN;
	from R1-12-47-1_node_536_bus102;
	to R1-12-47-1_node_537_bus102;
	current_limit 50000;
	status CLOSED;
	mean_replacement_time 3600.0;
};

object fuse {
	name R1-12-47-1_fuse_43_bus102;
	phases AN;
	from R1-12-47-1_node_346_bus102;
	to R1-12-47-1_node_410_bus102;
	current_limit 50000;
	status CLOSED;
	mean_replacement_time 3600.0;
};

object fuse {
	name R1-12-47-1_fuse_44_bus102;
	phases CN;
	from R1-12-47-1_node_345_bus102;
	to R1-12-47-1_node_358_bus102;
	current_limit 50000;
	status CLOSED;
	mean_replacement_time 3600.0;
};

object fuse {
	name R1-12-47-1_fuse_45_bus102;
	phases CN;
	from R1-12-47-1_node_441_bus102;
	to R1-12-47-1_node_442_bus102;
	current_limit 50000;
	status CLOSED;
	mean_replacement_time 3600.0;
};

object fuse {
	name R1-12-47-1_fuse_46_bus102;
	phases AN;
	from R1-12-47-1_node_420_bus102;
	to R1-12-47-1_node_421_bus102;
	current_limit 50000;
	status CLOSED;
	mean_replacement_time 3600.0;
};

object fuse {
	name R1-12-47-1_fuse_47_bus102;
	phases ABCN;
	from R1-12-47-1_node_439_bus102;
	to R1-12-47-1_node_440_bus102;
	current_limit 50000;
	status CLOSED;
	mean_replacement_time 3600.0;
};

object fuse {
	name R1-12-47-1_fuse_48_bus102;
	phases ABCN;
	from R1-12-47-1_node_217_bus102;
	to R1-12-47-1_node_334_bus102;
	current_limit 50000;
	status CLOSED;
	mean_replacement_time 3600.0;
};

object fuse {
	name R1-12-47-1_fuse_49_bus102;
	phases BN;
	from R1-12-47-1_node_433_bus102;
	to R1-12-47-1_node_432_bus102;
	current_limit 50000;
	status CLOSED;
	mean_replacement_time 3600.0;
};

object fuse {
	name R1-12-47-1_fuse_50_bus102;
	phases AN;
	from R1-12-47-1_node_233_bus102;
	to R1-12-47-1_node_237_bus102;
	current_limit 50000;
	status CLOSED;
	mean_replacement_time 3600.0;
};

object fuse {
	name R1-12-47-1_fuse_51_bus102;
	phases ABCN;
	from R1-12-47-1_node_234_bus102;
	to R1-12-47-1_node_240_bus102;
	current_limit 50000;
	status CLOSED;
	mean_replacement_time 3600.0;
};

object fuse {
	name R1-12-47-1_fuse_52_bus102;
	phases CN;
	from R1-12-47-1_node_420_bus102;
	to R1-12-47-1_node_423_bus102;
	current_limit 50000;
	status CLOSED;
	mean_replacement_time 3600.0;
};

object fuse {
	name R1-12-47-1_fuse_53_bus102;
	phases AN;
	from R1-12-47-1_node_338_bus102;
	to R1-12-47-1_node_347_bus102;
	current_limit 50000;
	status CLOSED;
	mean_replacement_time 3600.0;
};

object fuse {
	name R1-12-47-1_fuse_54_bus102;
	phases AN;
	from R1-12-47-1_node_347_bus102;
	to R1-12-47-1_node_353_bus102;
	current_limit 50000;
	status CLOSED;
	mean_replacement_time 3600.0;
};

object fuse {
	name R1-12-47-1_fuse_55_bus102;
	phases CN;
	from R1-12-47-1_node_331_bus102;
	to R1-12-47-1_node_332_bus102;
	current_limit 50000;
	status CLOSED;
	mean_replacement_time 3600.0;
};

object fuse {
	name R1-12-47-1_fuse_56_bus102;
	phases AN;
	from R1-12-47-1_node_361_bus102;
	to R1-12-47-1_node_365_bus102;
	current_limit 50000;
	status CLOSED;
	mean_replacement_time 3600.0;
};

object fuse {
	name R1-12-47-1_fuse_57_bus102;
	phases CN;
	from R1-12-47-1_node_229_bus102;
	to R1-12-47-1_node_230_bus102;
	current_limit 50000;
	status CLOSED;
	mean_replacement_time 3600.0;
};

object fuse {
	name R1-12-47-1_fuse_58_bus102;
	phases AN;
	from R1-12-47-1_node_348_bus102;
	to R1-12-47-1_node_352_bus102;
	current_limit 50000;
	status CLOSED;
	mean_replacement_time 3600.0;
};

object fuse {
	name R1-12-47-1_fuse_59_bus102;
	phases ABCN;
	from R1-12-47-1_node_361_bus102;
	to R1-12-47-1_node_362_bus102;
	current_limit 50000;
	status CLOSED;
	mean_replacement_time 3600.0;
};

object fuse {
	name R1-12-47-1_fuse_60_bus102;
	phases CN;
	from R1-12-47-1_node_218_bus102;
	to R1-12-47-1_node_219_bus102;
	current_limit 50000;
	status CLOSED;
	mean_replacement_time 3600.0;
};

object fuse {
	name R1-12-47-1_fuse_61_bus102;
	phases AN;
	from R1-12-47-1_node_350_bus102;
	to R1-12-47-1_node_351_bus102;
	current_limit 50000;
	status CLOSED;
	mean_replacement_time 3600.0;
};

object fuse {
	name R1-12-47-1_fuse_62_bus102;
	phases BN;
	from R1-12-47-1_node_211_bus102;
	to R1-12-47-1_node_213_bus102;
	current_limit 50000;
	status CLOSED;
	mean_replacement_time 3600.0;
};

object fuse {
	name R1-12-47-1_fuse_63_bus102;
	phases AN;
	from R1-12-47-1_node_374_bus102;
	to R1-12-47-1_node_381_bus102;
	current_limit 50000;
	status CLOSED;
	mean_replacement_time 3600.0;
};

object fuse {
	name R1-12-47-1_fuse_64_bus102;
	phases CN;
	from R1-12-47-1_node_368_bus102;
	to R1-12-47-1_node_370_bus102;
	current_limit 50000;
	status CLOSED;
	mean_replacement_time 3600.0;
};

object fuse {
	name R1-12-47-1_fuse_65_bus102;
	phases AN;
	from R1-12-47-1_node_371_bus102;
	to R1-12-47-1_node_372_bus102;
	current_limit 50000;
	status CLOSED;
	mean_replacement_time 3600.0;
};

object fuse {
	name R1-12-47-1_fuse_66_bus102;
	phases BN;
	from R1-12-47-1_node_203_bus102;
	to R1-12-47-1_node_208_bus102;
	current_limit 50000;
	status CLOSED;
	mean_replacement_time 3600.0;
};

object fuse {
	name R1-12-47-1_fuse_67_bus102;
	phases AN;
	from R1-12-47-1_node_372_bus102;
	to R1-12-47-1_node_380_bus102;
	current_limit 50000;
	status CLOSED;
	mean_replacement_time 3600.0;
};

object fuse {
	name R1-12-47-1_fuse_68_bus102;
	phases AN;
	from R1-12-47-1_node_383_bus102;
	to R1-12-47-1_node_384_bus102;
	current_limit 50000;
	status CLOSED;
	mean_replacement_time 3600.0;
};

object fuse {
	name R1-12-47-1_fuse_69_bus102;
	phases AN;
	from R1-12-47-1_node_391_bus102;
	to R1-12-47-1_node_394_bus102;
	current_limit 50000;
	status CLOSED;
	mean_replacement_time 3600.0;
};

object fuse {
	name R1-12-47-1_fuse_70_bus102;
	phases BN;
	from R1-12-47-1_node_211_bus102;
	to R1-12-47-1_node_214_bus102;
	current_limit 50000;
	status CLOSED;
	mean_replacement_time 3600.0;
};

object fuse {
	name R1-12-47-1_fuse_71_bus102;
	phases BN;
	from R1-12-47-1_node_393_bus102;
	to R1-12-47-1_node_396_bus102;
	current_limit 50000;
	status CLOSED;
	mean_replacement_time 3600.0;
};

object fuse {
	name R1-12-47-1_fuse_72_bus102;
	phases BN;
	from R1-12-47-1_node_205_bus102;
	to R1-12-47-1_node_206_bus102;
	current_limit 50000;
	status CLOSED;
	mean_replacement_time 3600.0;
};

object fuse {
	name R1-12-47-1_fuse_73_bus102;
	phases BN;
	from R1-12-47-1_node_175_bus102;
	to R1-12-47-1_node_205_bus102;
	current_limit 50000;
	status CLOSED;
	mean_replacement_time 3600.0;
};

object fuse {
	name R1-12-47-1_fuse_74_bus102;
	phases AN;
	from R1-12-47-1_node_140_bus102;
	to R1-12-47-1_node_163_bus102;
	current_limit 50000;
	status CLOSED;
	mean_replacement_time 3600.0;
};

object fuse {
	name R1-12-47-1_fuse_75_bus102;
	phases CN;
	from R1-12-47-1_node_140_bus102;
	to R1-12-47-1_node_167_bus102;
	current_limit 50000;
	status CLOSED;
	mean_replacement_time 3600.0;
};

object fuse {
	name R1-12-47-1_fuse_76_bus102;
	phases CN;
	from R1-12-47-1_node_168_bus102;
	to R1-12-47-1_node_170_bus102;
	current_limit 50000;
	status CLOSED;
	mean_replacement_time 3600.0;
};

object fuse {
	name R1-12-47-1_fuse_77_bus102;
	phases AN;
	from R1-12-47-1_node_159_bus102;
	to R1-12-47-1_node_160_bus102;
	current_limit 50000;
	status CLOSED;
	mean_replacement_time 3600.0;
};

object fuse {
	name R1-12-47-1_fuse_78_bus102;
	phases BN;
	from R1-12-47-1_node_403_bus102;
	to R1-12-47-1_node_405_bus102;
	current_limit 50000;
	status CLOSED;
	mean_replacement_time 3600.0;
};

object fuse {
	name R1-12-47-1_fuse_79_bus102;
	phases CN;
	from R1-12-47-1_node_173_bus102;
	to R1-12-47-1_node_182_bus102;
	current_limit 50000;
	status CLOSED;
	mean_replacement_time 3600.0;
};

object fuse {
	name R1-12-47-1_fuse_80_bus102;
	phases CN;
	from R1-12-47-1_node_182_bus102;
	to R1-12-47-1_node_185_bus102;
	current_limit 50000;
	status CLOSED;
	mean_replacement_time 3600.0;
};

object fuse {
	name R1-12-47-1_fuse_81_bus102;
	phases AN;
	from R1-12-47-1_node_133_bus102;
	to R1-12-47-1_node_141_bus102;
	current_limit 50000;
	status CLOSED;
	mean_replacement_time 3600.0;
};

object fuse {
	name R1-12-47-1_fuse_82_bus102;
	phases AN;
	from R1-12-47-1_node_404_bus102;
	to R1-12-47-1_node_408_bus102;
	current_limit 50000;
	status CLOSED;
	mean_replacement_time 3600.0;
};

object fuse {
	name R1-12-47-1_fuse_83_bus102;
	phases CN;
	from R1-12-47-1_node_183_bus102;
	to R1-12-47-1_node_186_bus102;
	current_limit 50000;
	status CLOSED;
	mean_replacement_time 3600.0;
};

object fuse {
	name R1-12-47-1_fuse_84_bus102;
	phases AN;
	from R1-12-47-1_node_147_bus102;
	to R1-12-47-1_node_149_bus102;
	current_limit 50000;
	status CLOSED;
	mean_replacement_time 3600.0;
};

object fuse {
	name R1-12-47-1_fuse_85_bus102;
	phases BN;
	from R1-12-47-1_node_134_bus102;
	to R1-12-47-1_node_135_bus102;
	current_limit 50000;
	status CLOSED;
	mean_replacement_time 3600.0;
};

object fuse {
	name R1-12-47-1_fuse_86_bus102;
	phases CN;
	from R1-12-47-1_node_189_bus102;
	to R1-12-47-1_node_190_bus102;
	current_limit 50000;
	status CLOSED;
	mean_replacement_time 3600.0;
};

object fuse {
	name R1-12-47-1_fuse_87_bus102;
	phases BN;
	from R1-12-47-1_node_74_bus102;
	to R1-12-47-1_node_78_bus102;
	current_limit 50000;
	status CLOSED;
	mean_replacement_time 3600.0;
};

object fuse {
	name R1-12-47-1_fuse_88_bus102;
	phases CN;
	from R1-12-47-1_node_191_bus102;
	to R1-12-47-1_node_193_bus102;
	current_limit 50000;
	status CLOSED;
	mean_replacement_time 3600.0;
};

object fuse {
	name R1-12-47-1_fuse_89_bus102;
	phases AN;
	from R1-12-47-1_node_67_bus102;
	to R1-12-47-1_node_72_bus102;
	current_limit 50000;
	status CLOSED;
	mean_replacement_time 3600.0;
};

object fuse {
	name R1-12-47-1_fuse_90_bus102;
	phases AN;
	from R1-12-47-1_node_23_bus102;
	to R1-12-47-1_node_24_bus102;
	current_limit 50000;
	status CLOSED;
	mean_replacement_time 3600.0;
};

object fuse {
	name R1-12-47-1_fuse_91_bus102;
	phases BN;
	from R1-12-47-1_node_44_bus102;
	to R1-12-47-1_node_128_bus102;
	current_limit 50000;
	status CLOSED;
	mean_replacement_time 3600.0;
};

object fuse {
	name R1-12-47-1_fuse_92_bus102;
	phases CN;
	from R1-12-47-1_node_44_bus102;
	to R1-12-47-1_node_45_bus102;
	current_limit 50000;
	status CLOSED;
	mean_replacement_time 3600.0;
};

object fuse {
	name R1-12-47-1_fuse_93_bus102;
	phases BN;
	from R1-12-47-1_node_44_bus102;
	to R1-12-47-1_node_127_bus102;
	current_limit 50000;
	status CLOSED;
	mean_replacement_time 3600.0;
};

object fuse {
	name R1-12-47-1_fuse_94_bus102;
	phases AN;
	from R1-12-47-1_node_64_bus102;
	to R1-12-47-1_node_70_bus102;
	current_limit 50000;
	status CLOSED;
	mean_replacement_time 3600.0;
};

object fuse {
	name R1-12-47-1_fuse_95_bus102;
	phases CN;
	from R1-12-47-1_node_195_bus102;
	to R1-12-47-1_node_197_bus102;
	current_limit 50000;
	status CLOSED;
	mean_replacement_time 3600.0;
};

object fuse {
	name R1-12-47-1_fuse_96_bus102;
	phases CN;
	from R1-12-47-1_node_195_bus102;
	to R1-12-47-1_node_196_bus102;
	current_limit 50000;
	status CLOSED;
	mean_replacement_time 3600.0;
};

object fuse {
	name R1-12-47-1_fuse_97_bus102;
	phases AN;
	from R1-12-47-1_node_63_bus102;
	to R1-12-47-1_node_69_bus102;
	current_limit 50000;
	status CLOSED;
	mean_replacement_time 3600.0;
};

object fuse {
	name R1-12-47-1_fuse_98_bus102;
	phases ABCN;
	from R1-12-47-1_node_61_bus102;
	to R1-12-47-1_node_62_bus102;
	current_limit 50000;
	status CLOSED;
	mean_replacement_time 3600.0;
};

object fuse {
	name R1-12-47-1_fuse_99_bus102;
	phases AN;
	from R1-12-47-1_node_62_bus102;
	to R1-12-47-1_node_68_bus102;
	current_limit 50000;
	status CLOSED;
	mean_replacement_time 3600.0;
};

object fuse {
	name R1-12-47-1_fuse_100_bus102;
	phases AN;
	from R1-12-47-1_node_6_bus102;
	to R1-12-47-1_node_28_bus102;
	current_limit 50000;
	status CLOSED;
	mean_replacement_time 3600.0;
};

object fuse {
	name R1-12-47-1_fuse_101_bus102;
	phases AN;
	from R1-12-47-1_node_21_bus102;
	to R1-12-47-1_node_22_bus102;
	current_limit 50000;
	status CLOSED;
	mean_replacement_time 3600.0;
};

object fuse {
	name R1-12-47-1_fuse_102_bus102;
	phases AN;
	from R1-12-47-1_node_13_bus102;
	to R1-12-47-1_node_34_bus102;
	current_limit 50000;
	status CLOSED;
	mean_replacement_time 3600.0;
};

object fuse {
	name R1-12-47-1_fuse_103_bus102;
	phases ABCN;
	from R1-12-47-1_node_47_bus102;
	to R1-12-47-1_node_48_bus102;
	current_limit 50000;
	status CLOSED;
	mean_replacement_time 3600.0;
};

object fuse {
	name R1-12-47-1_fuse_104_bus102;
	phases BN;
	from R1-12-47-1_node_14_bus102;
	to R1-12-47-1_node_38_bus102;
	current_limit 50000;
	status CLOSED;
	mean_replacement_time 3600.0;
};

object fuse {
	name R1-12-47-1_fuse_105_bus102;
	phases AN;
	from R1-12-47-1_node_11_bus102;
	to R1-12-47-1_node_31_bus102;
	current_limit 50000;
	status CLOSED;
	mean_replacement_time 3600.0;
};

object fuse {
	name R1-12-47-1_fuse_106_bus102;
	phases ABCN;
	from R1-12-47-1_node_61_bus102;
	to R1-12-47-1_node_79_bus102;
	current_limit 50000;
	status CLOSED;
	mean_replacement_time 3600.0;
};

object fuse {
	name R1-12-47-1_fuse_107_bus102;
	phases AN;
	from R1-12-47-1_node_25_bus102;
	to R1-12-47-1_node_26_bus102;
	current_limit 50000;
	status CLOSED;
	mean_replacement_time 3600.0;
};

object fuse {
	name R1-12-47-1_fuse_108_bus102;
	phases BN;
	from R1-12-47-1_node_7_bus102;
	to R1-12-47-1_node_29_bus102;
	current_limit 50000;
	status CLOSED;
	mean_replacement_time 3600.0;
};

object fuse {
	name R1-12-47-1_fuse_109_bus102;
	phases CN;
	from R1-12-47-1_node_52_bus102;
	to R1-12-47-1_node_54_bus102;
	current_limit 50000;
	status CLOSED;
	mean_replacement_time 3600.0;
};

object fuse {
	name R1-12-47-1_fuse_110_bus102;
	phases AN;
	from R1-12-47-1_node_50_bus102;
	to R1-12-47-1_node_53_bus102;
	current_limit 50000;
	status CLOSED;
	mean_replacement_time 3600.0;
};

object fuse {
	name R1-12-47-1_fuse_111_bus102;
	phases BN;
	from R1-12-47-1_node_80_bus102;
	to R1-12-47-1_node_84_bus102;
	current_limit 50000;
	status CLOSED;
	mean_replacement_time 3600.0;
};

object fuse {
	name R1-12-47-1_fuse_112_bus102;
	phases AN;
	from R1-12-47-1_node_117_bus102;
	to R1-12-47-1_node_119_bus102;
	current_limit 50000;
	status CLOSED;
	mean_replacement_time 3600.0;
};

object fuse {
	name R1-12-47-1_fuse_113_bus102;
	phases CN;
	from R1-12-47-1_node_88_bus102;
	to R1-12-47-1_node_91_bus102;
	current_limit 50000;
	status CLOSED;
	mean_replacement_time 3600.0;
};

object fuse {
	name R1-12-47-1_fuse_114_bus102;
	phases AN;
	from R1-12-47-1_node_88_bus102;
	to R1-12-47-1_node_106_bus102;
	current_limit 50000;
	status CLOSED;
	mean_replacement_time 3600.0;
};

object fuse {
	name R1-12-47-1_fuse_115_bus102;
	phases AN;
	from R1-12-47-1_node_121_bus102;
	to R1-12-47-1_node_125_bus102;
	current_limit 50000;
	status CLOSED;
	mean_replacement_time 3600.0;
};

object fuse {
	name R1-12-47-1_fuse_116_bus102;
	phases CN;
	from R1-12-47-1_node_89_bus102;
	to R1-12-47-1_node_93_bus102;
	current_limit 50000;
	status CLOSED;
	mean_replacement_time 3600.0;
};

object fuse {
	name R1-12-47-1_fuse_117_bus102;
	phases AN;
	from R1-12-47-1_node_117_bus102;
	to R1-12-47-1_node_118_bus102;
	current_limit 50000;
	status CLOSED;
	mean_replacement_time 3600.0;
};

object fuse {
	name R1-12-47-1_fuse_118_bus102;
	phases AN;
	from R1-12-47-1_node_107_bus102;
	to R1-12-47-1_node_108_bus102;
	current_limit 50000;
	status CLOSED;
	mean_replacement_time 3600.0;
};

object fuse {
	name R1-12-47-1_fuse_119_bus102;
	phases CN;
	from R1-12-47-1_node_101_bus102;
	to R1-12-47-1_node_102_bus102;
	current_limit 50000;
	status CLOSED;
	mean_replacement_time 3600.0;
};

object fuse {
	name R1-12-47-1_fuse_120_bus102;
	phases AN;
	from R1-12-47-1_node_123_bus102;
	to R1-12-47-1_node_124_bus102;
	current_limit 50000;
	status CLOSED;
	mean_replacement_time 3600.0;
};

object fuse {
	name R1-12-47-1_fuse_121_bus102;
	phases CN;
	from R1-12-47-1_node_90_bus102;
	to R1-12-47-1_node_97_bus102;
	current_limit 50000;
	status CLOSED;
	mean_replacement_time 3600.0;
};

object fuse {
	name R1-12-47-1_fuse_122_bus102;
	phases CN;
	from R1-12-47-1_node_103_bus102;
	to R1-12-47-1_node_105_bus102;
	current_limit 50000;
	status CLOSED;
	mean_replacement_time 3600.0;
};

object line_configuration {
	conductor_A underground_line_conductor_2_bus102;
	conductor_N underground_line_conductor_2_bus102;
	spacing line_spacing_11_bus102;
	name line_configuration_16_bus102;
};

object line_configuration {
	conductor_B underground_line_conductor_2_bus102;
	conductor_N underground_line_conductor_2_bus102;
	spacing line_spacing_12_bus102;
	name line_configuration_17_bus102;
};

object line_configuration {
	conductor_A overhead_line_conductor_3_bus102;
	conductor_N overhead_line_conductor_3_bus102;
	spacing line_spacing_11_bus102;
	name line_configuration_18_bus102;
};

object line_configuration {
	conductor_A overhead_line_conductor_3_bus102;
	conductor_B overhead_line_conductor_3_bus102;
	conductor_C overhead_line_conductor_3_bus102;
	conductor_N overhead_line_conductor_3_bus102;
	spacing line_spacing_13_bus102;
	name line_configuration_19_bus102;
};

object line_configuration {
	conductor_C underground_line_conductor_2_bus102;
	conductor_N underground_line_conductor_2_bus102;
	spacing line_spacing_14_bus102;
	name line_configuration_20_bus102;
};

object line_configuration {
	conductor_C overhead_line_conductor_3_bus102;
	conductor_N overhead_line_conductor_3_bus102;
	spacing line_spacing_14_bus102;
	name line_configuration_21_bus102;
};

object line_configuration {
	conductor_A overhead_line_conductor_4_bus102;
	conductor_B overhead_line_conductor_4_bus102;
	conductor_C overhead_line_conductor_4_bus102;
	conductor_N overhead_line_conductor_4_bus102;
	spacing line_spacing_13_bus102;
	name line_configuration_22_bus102;
};

object line_configuration {
	conductor_A overhead_line_conductor_5_bus102;
	conductor_N overhead_line_conductor_5_bus102;
	spacing line_spacing_11_bus102;
	name line_configuration_23_bus102;
};

object line_configuration {
	conductor_C overhead_line_conductor_6_bus102;
	conductor_N overhead_line_conductor_6_bus102;
	spacing line_spacing_14_bus102;
	name line_configuration_24_bus102;
};

object line_configuration {
	conductor_A underground_line_conductor_7_bus102;
	conductor_B underground_line_conductor_7_bus102;
	conductor_C underground_line_conductor_7_bus102;
	conductor_N underground_line_conductor_7_bus102;
	spacing line_spacing_13_bus102;
	name line_configuration_25_bus102;
};

object line_configuration {
	conductor_A underground_line_conductor_8_bus102;
	conductor_B underground_line_conductor_8_bus102;
	conductor_C underground_line_conductor_8_bus102;
	conductor_N underground_line_conductor_8_bus102;
	spacing line_spacing_13_bus102;
	name line_configuration_26_bus102;
};

object line_configuration {
	conductor_A overhead_line_conductor_9_bus102;
	conductor_N overhead_line_conductor_9_bus102;
	spacing line_spacing_11_bus102;
	name line_configuration_27_bus102;
};

object line_configuration {
	conductor_B overhead_line_conductor_3_bus102;
	conductor_N overhead_line_conductor_3_bus102;
	spacing line_spacing_12_bus102;
	name line_configuration_28_bus102;
};

object line_configuration {
	conductor_A overhead_line_conductor_6_bus102;
	conductor_N overhead_line_conductor_6_bus102;
	spacing line_spacing_11_bus102;
	name line_configuration_29_bus102;
};

object line_configuration {
	conductor_C overhead_line_conductor_9_bus102;
	conductor_N overhead_line_conductor_9_bus102;
	spacing line_spacing_14_bus102;
	name line_configuration_30_bus102;
};

object line_configuration {
	conductor_A underground_line_conductor_2_bus102;
	conductor_C underground_line_conductor_2_bus102;
	conductor_N underground_line_conductor_2_bus102;
	spacing line_spacing_15_bus102;
	name line_configuration_31_bus102;
};

object line_configuration {
	conductor_A overhead_line_conductor_10_bus102;
	conductor_B overhead_line_conductor_10_bus102;
	conductor_C overhead_line_conductor_10_bus102;
	conductor_N overhead_line_conductor_10_bus102;
	spacing line_spacing_13_bus102;
	name line_configuration_32_bus102;
};

object line_configuration {
	conductor_B overhead_line_conductor_9_bus102;
	conductor_N overhead_line_conductor_9_bus102;
	spacing line_spacing_12_bus102;
	name line_configuration_33_bus102;
};

object line_configuration {
	conductor_B overhead_line_conductor_5_bus102;
	conductor_N overhead_line_conductor_5_bus102;
	spacing line_spacing_12_bus102;
	name line_configuration_34_bus102;
};

object line_spacing {
	distance_AN 51.6 in;
	name line_spacing_11_bus102;
};

object line_spacing {
	distance_BN 51.6 in;
	name line_spacing_12_bus102;
};

object line_spacing {
	distance_AB 57.6 in;
	distance_BC 57.6 in;
	distance_AC 57.6 in;
	distance_AN 51.6 in;
	distance_BN 51.6 in;
	distance_CN 51.6 in;
	name line_spacing_13_bus102;
};

object line_spacing {
	distance_CN 51.6 in;
	name line_spacing_14_bus102;
};

object line_spacing {
	distance_AC 57.6 in;
	distance_AN 51.6 in;
	distance_CN 51.6 in;
	name line_spacing_15_bus102;
};

object load {
	name R1-12-47-1_load_1_bus102;
	parent R1-12-47-1_meter_1_bus102;
	phases CN;
	voltage_C -3608.44+6250j;
	constant_power_C 66446.0143+25680.8384j;
	nominal_voltage 480;
	load_class C;
};

object load {
	name R1-12-47-1_load_2_bus102;
	parent R1-12-47-1_meter_2_bus102;
	phases AN;
	voltage_A 7216.88+0.0j;
	constant_power_A 8271.7473+9205.9446j;
	nominal_voltage 480;
	load_class C;
};

object load {
	name R1-12-47-1_load_3_bus102;
	parent R1-12-47-1_meter_3_bus102;
	phases CN;
	voltage_C -3608.44+6250j;
	constant_power_C 36160.4072+13975.7002j;
	nominal_voltage 480;
	load_class C;
};

object load {
	name R1-12-47-1_load_4_bus102;
	parent R1-12-47-1_meter_4_bus102;
	phases ABCN;
	voltage_A 7216.88+0.0j;
	voltage_B -3608.44-6250j;
	voltage_C -3608.44+6250j;
	constant_power_A 0+0j;
	constant_power_B 8339.1026+3255.4855j;
	constant_power_C 0+0j;
	nominal_voltage 480;
	load_class C;
};

object load {
	name R1-12-47-1_load_5_bus102;
	parent R1-12-47-1_meter_5_bus102;
	phases ABCN;
	voltage_A 7216.88+0.0j;
	voltage_B -3608.44-6250j;
	voltage_C -3608.44+6250j;
	constant_power_A 0+0j;
	constant_power_B 20326.5626+7935.246j;
	constant_power_C 0+0j;
	nominal_voltage 480;
	load_class C;
};

object load {
	name R1-12-47-1_load_6_bus102;
	parent R1-12-47-1_meter_6_bus102;
	phases ABCN;
	voltage_A 7216.88+0.0j;
	voltage_B -3608.44-6250j;
	voltage_C -3608.44+6250j;
	constant_power_A 0+0j;
	constant_power_B 15784.7299+6162.1691j;
	constant_power_C 0+0j;
	nominal_voltage 480;
	load_class C;
};

object load {
	name R1-12-47-1_load_7_bus102;
	parent R1-12-47-1_meter_7_bus102;
	phases ABCN;
	voltage_A 7216.88+0.0j;
	voltage_B -3608.44-6250j;
	voltage_C -3608.44+6250j;
	constant_power_A 7958.5631+8857.3899j;
	constant_power_B 32165.11+12556.8728j;
	constant_power_C 43757.1314+16911.7716j;
	nominal_voltage 480;
	load_class C;
};

object load {
	name R1-12-47-1_load_8_bus102;
	parent R1-12-47-1_meter_8_bus102;
	phases AN;
	voltage_A 7216.88+0.0j;
	constant_power_A 6411.0647+7135.1197j;
	nominal_voltage 480;
	load_class C;
};

object load {
	name R1-12-47-1_load_9_bus102;
	parent R1-12-47-1_meter_9_bus102;
	phases CN;
	voltage_C -3608.44+6250j;
	constant_power_C 50746.1176+19612.9574j;
	nominal_voltage 480;
	load_class C;
};

object load {
	name R1-12-47-1_load_10_bus102;
	parent R1-12-47-1_meter_10_bus102;
	phases CN;
	voltage_C -3608.44+6250j;
	constant_power_C 10534.1242+4071.3524j;
	nominal_voltage 480;
	load_class C;
};

object load {
	name R1-12-47-1_load_11_bus102;
	parent R1-12-47-1_meter_11_bus102;
	phases ABCN;
	voltage_A 7216.88+0.0j;
	voltage_B -3608.44-6250j;
	voltage_C -3608.44+6250j;
	constant_power_A 0+0j;
	constant_power_B 9083.6653+3546.1539j;
	constant_power_C 0+0j;
	nominal_voltage 480;
	load_class C;
};

object load {
	name R1-12-47-1_load_12_bus102;
	parent R1-12-47-1_meter_12_bus102;
	phases CN;
	voltage_C -3608.44+6250j;
	constant_power_C 27550.7864+10648.1525j;
	nominal_voltage 480;
	load_class C;
};

object load {
	name R1-12-47-1_load_13_bus102;
	parent R1-12-47-1_meter_13_bus102;
	phases AN;
	voltage_A 7216.88+0.0j;
	constant_power_A 3076.5742+3424.0373j;
	nominal_voltage 480;
	load_class A;
};

object load {
	name R1-12-47-1_load_14_bus102;
	parent R1-12-47-1_meter_14_bus102;
	phases AN;
	voltage_A 7216.88+0.0j;
	constant_power_A 1584.3436+1763.2767j;
	nominal_voltage 480;
	load_class A;
};

object load {
	name R1-12-47-1_load_15_bus102;
	parent R1-12-47-1_meter_15_bus102;
	phases AN;
	voltage_A 7216.88+0.0j;
	constant_power_A 1547.4984+1722.2703j;
	nominal_voltage 480;
	load_class A;
};

object load {
	name R1-12-47-1_load_16_bus102;
	parent R1-12-47-1_meter_16_bus102;
	phases AN;
	voltage_A 7216.88+0.0j;
	constant_power_A 6374.2195+7094.1132j;
	nominal_voltage 480;
	load_class A;
};

object load {
	name R1-12-47-1_load_17_bus102;
	parent R1-12-47-1_meter_17_bus102;
	phases AN;
	voltage_A 7216.88+0.0j;
	constant_power_A 4163.5076+4633.7271j;
	nominal_voltage 480;
	load_class A;
};

object load {
	name R1-12-47-1_load_18_bus102;
	parent R1-12-47-1_meter_18_bus102;
	phases AN;
	voltage_A 7216.88+0.0j;
	constant_power_A 6411.0647+7135.1197j;
	nominal_voltage 480;
	load_class A;
};

object load {
	name R1-12-47-1_load_19_bus102;
	parent R1-12-47-1_meter_19_bus102;
	phases ABCN;
	voltage_A 7216.88+0.0j;
	voltage_B -3608.44-6250j;
	voltage_C -3608.44+6250j;
	constant_power_A 0+0j;
	constant_power_B 14370.0607+5609.8992j;
	constant_power_C 0+0j;
	nominal_voltage 480;
	load_class A;
};

object load {
	name R1-12-47-1_load_20_bus102;
	parent R1-12-47-1_meter_20_bus102;
	phases ABCN;
	voltage_A 7216.88+0.0j;
	voltage_B -3608.44-6250j;
	voltage_C -3608.44+6250j;
	constant_power_A 0+0j;
	constant_power_B 10721.7033+4185.6243j;
	constant_power_C 0+0j;
	nominal_voltage 480;
	load_class A;
};

object meter {
	name R1-12-47-1_meter_1_bus102;
	phases CN;
	nominal_voltage 480;
};

object meter {
	name R1-12-47-1_meter_2_bus102;
	phases AN;
	nominal_voltage 480;
};

object meter {
	name R1-12-47-1_meter_3_bus102;
	phases CN;
	nominal_voltage 480;
};

object meter {
	name R1-12-47-1_meter_4_bus102;
	phases ABCN;
	nominal_voltage 480;
};

object meter {
	name R1-12-47-1_meter_5_bus102;
	phases ABCN;
	nominal_voltage 480;
};

object meter {
	name R1-12-47-1_meter_6_bus102;
	phases ABCN;
	nominal_voltage 480;
};

object meter {
	name R1-12-47-1_meter_7_bus102;
	phases ABCN;
	nominal_voltage 480;
};

object meter {
	name R1-12-47-1_meter_8_bus102;
	phases AN;
	nominal_voltage 480;
};

object meter {
	name R1-12-47-1_meter_9_bus102;
	phases CN;
	nominal_voltage 480;
};

object meter {
	name R1-12-47-1_meter_10_bus102;
	phases CN;
	nominal_voltage 480;
};

object meter {
	name R1-12-47-1_meter_11_bus102;
	phases ABCN;
	nominal_voltage 480;
};

object meter {
	name R1-12-47-1_meter_12_bus102;
	phases CN;
	nominal_voltage 480;
};

object meter {
	name R1-12-47-1_meter_13_bus102;
	phases AN;
	nominal_voltage 480;
};

object meter {
	name R1-12-47-1_meter_14_bus102;
	phases AN;
	nominal_voltage 480;
};

object meter {
	name R1-12-47-1_meter_15_bus102;
	phases AN;
	nominal_voltage 480;
};

object meter {
	name R1-12-47-1_meter_16_bus102;
	phases AN;
	nominal_voltage 480;
};

object meter {
	name R1-12-47-1_meter_17_bus102;
	phases AN;
	nominal_voltage 480;
};

object meter {
	name R1-12-47-1_meter_18_bus102;
	phases AN;
	nominal_voltage 480;
};

object meter {
	name R1-12-47-1_meter_19_bus102;
	phases ABCN;
	nominal_voltage 480;
};

object meter {
	name R1-12-47-1_meter_20_bus102;
	phases ABCN;
	nominal_voltage 480;
};

object meter {
	name R1-12-47-1_meter_21_bus102;
	phases ABCN;
	nominal_voltage 7216.88;
};

object node {
	name R1-12-47-1_node_1_bus102;
	phases ABCN;
	voltage_A 7216.88+0.0j;
	voltage_B -3608.44-6250j;
	voltage_C -3608.44+6250j;
	nominal_voltage 7216.88;
};

object node {
	name R1-12-47-1_node_2_bus102;
	phases ABCN;
	voltage_A 7216.88+0.0j;
	voltage_B -3608.44-6250j;
	voltage_C -3608.44+6250j;
	nominal_voltage 7216.88;
};

object node {
	name R1-12-47-1_node_3_bus102;
	phases ABCN;
	voltage_A 7216.88+0.0j;
	voltage_B -3608.44-6250j;
	voltage_C -3608.44+6250j;
	nominal_voltage 7216.88;
};

object node {
	name R1-12-47-1_node_4_bus102;
	phases ABCN;
	voltage_A 7216.88+0.0j;
	voltage_B -3608.44-6250j;
	voltage_C -3608.44+6250j;
	nominal_voltage 7216.88;
};

object node {
	name R1-12-47-1_node_5_bus102;
	phases ABCN;
	voltage_A 7216.88+0.0j;
	voltage_B -3608.44-6250j;
	voltage_C -3608.44+6250j;
	nominal_voltage 7216.88;
};

object node {
	name R1-12-47-1_node_6_bus102;
	phases ABCN;
	voltage_A 7216.88+0.0j;
	voltage_B -3608.44-6250j;
	voltage_C -3608.44+6250j;
	nominal_voltage 7216.88;
};

object node {
	name R1-12-47-1_node_7_bus102;
	phases ABCN;
	voltage_A 7216.88+0.0j;
	voltage_B -3608.44-6250j;
	voltage_C -3608.44+6250j;
	nominal_voltage 7216.88;
};

object node {
	name R1-12-47-1_node_8_bus102;
	phases ABCN;
	voltage_A 7216.88+0.0j;
	voltage_B -3608.44-6250j;
	voltage_C -3608.44+6250j;
	nominal_voltage 7216.88;
};

object node {
	name R1-12-47-1_node_9_bus102;
	phases ABCN;
	voltage_A 7216.88+0.0j;
	voltage_B -3608.44-6250j;
	voltage_C -3608.44+6250j;
	nominal_voltage 7216.88;
};

object node {
	name R1-12-47-1_node_10_bus102;
	phases ABCN;
	voltage_A 7216.88+0.0j;
	voltage_B -3608.44-6250j;
	voltage_C -3608.44+6250j;
	nominal_voltage 7216.88;
};

object node {
	name R1-12-47-1_node_11_bus102;
	phases ABCN;
	voltage_A 7216.88+0.0j;
	voltage_B -3608.44-6250j;
	voltage_C -3608.44+6250j;
	nominal_voltage 7216.88;
};

object node {
	name R1-12-47-1_node_12_bus102;
	phases ABCN;
	voltage_A 7216.88+0.0j;
	voltage_B -3608.44-6250j;
	voltage_C -3608.44+6250j;
	nominal_voltage 7216.88;
};

object node {
	name R1-12-47-1_node_13_bus102;
	phases ABCN;
	voltage_A 7216.88+0.0j;
	voltage_B -3608.44-6250j;
	voltage_C -3608.44+6250j;
	nominal_voltage 7216.88;
};

object node {
	name R1-12-47-1_node_14_bus102;
	phases ABCN;
	voltage_A 7216.88+0.0j;
	voltage_B -3608.44-6250j;
	voltage_C -3608.44+6250j;
	nominal_voltage 7216.88;
};

object node {
	name R1-12-47-1_node_15_bus102;
	phases ABCN;
	voltage_A 7216.88+0.0j;
	voltage_B -3608.44-6250j;
	voltage_C -3608.44+6250j;
	nominal_voltage 7216.88;
};

object node {
	name R1-12-47-1_node_16_bus102;
	phases ABCN;
	voltage_A 7216.88+0.0j;
	voltage_B -3608.44-6250j;
	voltage_C -3608.44+6250j;
	nominal_voltage 7216.88;
};

object node {
	name R1-12-47-1_node_17_bus102;
	phases ABCN;
	voltage_A 7216.88+0.0j;
	voltage_B -3608.44-6250j;
	voltage_C -3608.44+6250j;
	nominal_voltage 7216.88;
};

object node {
	name R1-12-47-1_node_18_bus102;
	phases ABCN;
	voltage_A 7216.88+0.0j;
	voltage_B -3608.44-6250j;
	voltage_C -3608.44+6250j;
	nominal_voltage 7216.88;
};

object node {
	name R1-12-47-1_node_19_bus102;
	phases ABCN;
	voltage_A 7216.88+0.0j;
	voltage_B -3608.44-6250j;
	voltage_C -3608.44+6250j;
	nominal_voltage 7216.88;
};

object node {
	name R1-12-47-1_node_20_bus102;
	phases ABCN;
	voltage_A 7216.88+0.0j;
	voltage_B -3608.44-6250j;
	voltage_C -3608.44+6250j;
	nominal_voltage 7216.88;
};

object node {
	name R1-12-47-1_node_21_bus102;
	phases ABCN;
	voltage_A 7216.88+0.0j;
	voltage_B -3608.44-6250j;
	voltage_C -3608.44+6250j;
	nominal_voltage 7216.88;
};

object node {
	name R1-12-47-1_node_22_bus102;
	phases AN;
	voltage_A 7216.88+0.0j;
	nominal_voltage 7216.88;
};

object node {
	name R1-12-47-1_node_23_bus102;
	phases AN;
	voltage_A 7216.88+0.0j;
	nominal_voltage 7216.88;
};

object node {
	name R1-12-47-1_node_24_bus102;
	phases AN;
	voltage_A 7216.88+0.0j;
	nominal_voltage 7216.88;
};

object node {
	name R1-12-47-1_node_25_bus102;
	phases ABCN;
	voltage_A 7216.88+0.0j;
	voltage_B -3608.44-6250j;
	voltage_C -3608.44+6250j;
	nominal_voltage 7216.88;
};

object node {
	name R1-12-47-1_node_26_bus102;
	phases AN;
	voltage_A 7216.88+0.0j;
	nominal_voltage 7216.88;
};

object node {
	name R1-12-47-1_node_27_bus102;
	phases AN;
	voltage_A 7216.88+0.0j;
	nominal_voltage 7216.88;
};

object node {
	name R1-12-47-1_node_28_bus102;
	phases AN;
	voltage_A 7216.88+0.0j;
	nominal_voltage 7216.88;
};

object node {
	name R1-12-47-1_node_29_bus102;
	phases BN;
	voltage_B -3608.44-6250j;
	nominal_voltage 7216.88;
};

object node {
	name R1-12-47-1_node_30_bus102;
	phases BN;
	voltage_B -3608.44-6250j;
	nominal_voltage 7216.88;
};

object node {
	name R1-12-47-1_node_31_bus102;
	phases AN;
	voltage_A 7216.88+0.0j;
	nominal_voltage 7216.88;
};

object node {
	name R1-12-47-1_node_32_bus102;
	phases AN;
	voltage_A 7216.88+0.0j;
	nominal_voltage 7216.88;
};

object node {
	name R1-12-47-1_node_33_bus102;
	phases AN;
	voltage_A 7216.88+0.0j;
	nominal_voltage 7216.88;
};

object node {
	name R1-12-47-1_node_34_bus102;
	phases AN;
	voltage_A 7216.88+0.0j;
	nominal_voltage 7216.88;
};

object node {
	name R1-12-47-1_node_35_bus102;
	phases AN;
	voltage_A 7216.88+0.0j;
	nominal_voltage 7216.88;
};

object node {
	name R1-12-47-1_node_36_bus102;
	phases AN;
	voltage_A 7216.88+0.0j;
	nominal_voltage 7216.88;
};

object node {
	name R1-12-47-1_node_37_bus102;
	phases AN;
	voltage_A 7216.88+0.0j;
	nominal_voltage 7216.88;
};

object node {
	name R1-12-47-1_node_38_bus102;
	phases BN;
	voltage_B -3608.44-6250j;
	nominal_voltage 7216.88;
};

object node {
	name R1-12-47-1_node_39_bus102;
	phases BN;
	voltage_B -3608.44-6250j;
	nominal_voltage 7216.88;
};

object node {
	name R1-12-47-1_node_40_bus102;
	phases BN;
	voltage_B -3608.44-6250j;
	nominal_voltage 7216.88;
};

object node {
	name R1-12-47-1_node_41_bus102;
	phases BN;
	voltage_B -3608.44-6250j;
	nominal_voltage 7216.88;
};

object node {
	name R1-12-47-1_node_42_bus102;
	phases BN;
	voltage_B -3608.44-6250j;
	nominal_voltage 7216.88;
};

object node {
	name R1-12-47-1_node_43_bus102;
	phases ABCN;
	voltage_A 7216.88+0.0j;
	voltage_B -3608.44-6250j;
	voltage_C -3608.44+6250j;
	nominal_voltage 7216.88;
};

object node {
	name R1-12-47-1_node_44_bus102;
	phases ABCN;
	voltage_A 7216.88+0.0j;
	voltage_B -3608.44-6250j;
	voltage_C -3608.44+6250j;
	nominal_voltage 7216.88;
};

object node {
	name R1-12-47-1_node_45_bus102;
	phases CN;
	voltage_C -3608.44+6250j;
	nominal_voltage 7216.88;
};

object node {
	name R1-12-47-1_node_46_bus102;
	phases CN;
	voltage_C -3608.44+6250j;
	nominal_voltage 7216.88;
};

object node {
	name R1-12-47-1_node_47_bus102;
	phases ABCN;
	voltage_A 7216.88+0.0j;
	voltage_B -3608.44-6250j;
	voltage_C -3608.44+6250j;
	nominal_voltage 7216.88;
};

object node {
	name R1-12-47-1_node_48_bus102;
	phases ABCN;
	voltage_A 7216.88+0.0j;
	voltage_B -3608.44-6250j;
	voltage_C -3608.44+6250j;
	nominal_voltage 7216.88;
};

object node {
	name R1-12-47-1_node_49_bus102;
	phases ABCN;
	voltage_A 7216.88+0.0j;
	voltage_B -3608.44-6250j;
	voltage_C -3608.44+6250j;
	nominal_voltage 7216.88;
};

object node {
	name R1-12-47-1_node_50_bus102;
	phases ABCN;
	voltage_A 7216.88+0.0j;
	voltage_B -3608.44-6250j;
	voltage_C -3608.44+6250j;
	nominal_voltage 7216.88;
};

object node {
	name R1-12-47-1_node_51_bus102;
	phases ABCN;
	voltage_A 7216.88+0.0j;
	voltage_B -3608.44-6250j;
	voltage_C -3608.44+6250j;
	nominal_voltage 7216.88;
};

object node {
	name R1-12-47-1_node_52_bus102;
	phases ABCN;
	voltage_A 7216.88+0.0j;
	voltage_B -3608.44-6250j;
	voltage_C -3608.44+6250j;
	nominal_voltage 7216.88;
};

object node {
	name R1-12-47-1_node_53_bus102;
	phases AN;
	voltage_A 7216.88+0.0j;
	nominal_voltage 7216.88;
};

object node {
	name R1-12-47-1_node_54_bus102;
	phases CN;
	voltage_C -3608.44+6250j;
	nominal_voltage 7216.88;
};

object node {
	name R1-12-47-1_node_55_bus102;
	phases ABCN;
	voltage_A 7216.88+0.0j;
	voltage_B -3608.44-6250j;
	voltage_C -3608.44+6250j;
	nominal_voltage 7216.88;
};

object node {
	name R1-12-47-1_node_56_bus102;
	phases ABCN;
	voltage_A 7216.88+0.0j;
	voltage_B -3608.44-6250j;
	voltage_C -3608.44+6250j;
	nominal_voltage 7216.88;
};

object node {
	name R1-12-47-1_node_57_bus102;
	phases ABCN;
	voltage_A 7216.88+0.0j;
	voltage_B -3608.44-6250j;
	voltage_C -3608.44+6250j;
	nominal_voltage 7216.88;
};

object node {
	name R1-12-47-1_node_58_bus102;
	phases BN;
	voltage_B -3608.44-6250j;
	nominal_voltage 7216.88;
};

object node {
	name R1-12-47-1_node_59_bus102;
	phases BN;
	voltage_B -3608.44-6250j;
	nominal_voltage 7216.88;
};

object node {
	name R1-12-47-1_node_60_bus102;
	phases ABCN;
	voltage_A 7216.88+0.0j;
	voltage_B -3608.44-6250j;
	voltage_C -3608.44+6250j;
	nominal_voltage 7216.88;
};

object node {
	name R1-12-47-1_node_61_bus102;
	phases ABCN;
	voltage_A 7216.88+0.0j;
	voltage_B -3608.44-6250j;
	voltage_C -3608.44+6250j;
	nominal_voltage 7216.88;
};

object node {
	name R1-12-47-1_node_62_bus102;
	phases ABCN;
	voltage_A 7216.88+0.0j;
	voltage_B -3608.44-6250j;
	voltage_C -3608.44+6250j;
	nominal_voltage 7216.88;
};

object node {
	name R1-12-47-1_node_63_bus102;
	phases ABCN;
	voltage_A 7216.88+0.0j;
	voltage_B -3608.44-6250j;
	voltage_C -3608.44+6250j;
	nominal_voltage 7216.88;
};

object node {
	name R1-12-47-1_node_64_bus102;
	phases ABCN;
	voltage_A 7216.88+0.0j;
	voltage_B -3608.44-6250j;
	voltage_C -3608.44+6250j;
	nominal_voltage 7216.88;
};

object node {
	name R1-12-47-1_node_65_bus102;
	phases ABCN;
	voltage_A 7216.88+0.0j;
	voltage_B -3608.44-6250j;
	voltage_C -3608.44+6250j;
	nominal_voltage 7216.88;
};

object node {
	name R1-12-47-1_node_66_bus102;
	phases ABCN;
	voltage_A 7216.88+0.0j;
	voltage_B -3608.44-6250j;
	voltage_C -3608.44+6250j;
	nominal_voltage 7216.88;
};

object node {
	name R1-12-47-1_node_67_bus102;
	phases ABCN;
	voltage_A 7216.88+0.0j;
	voltage_B -3608.44-6250j;
	voltage_C -3608.44+6250j;
	nominal_voltage 7216.88;
};

object node {
	name R1-12-47-1_node_68_bus102;
	phases AN;
	voltage_A 7216.88+0.0j;
	nominal_voltage 7216.88;
};

object node {
	name R1-12-47-1_node_69_bus102;
	phases AN;
	voltage_A 7216.88+0.0j;
	nominal_voltage 7216.88;
};

object node {
	name R1-12-47-1_node_70_bus102;
	phases AN;
	voltage_A 7216.88+0.0j;
	nominal_voltage 7216.88;
};

object node {
	name R1-12-47-1_node_71_bus102;
	phases AN;
	voltage_A 7216.88+0.0j;
	nominal_voltage 7216.88;
};

object node {
	name R1-12-47-1_node_72_bus102;
	phases AN;
	voltage_A 7216.88+0.0j;
	nominal_voltage 7216.88;
};

object node {
	name R1-12-47-1_node_73_bus102;
	phases AN;
	voltage_A 7216.88+0.0j;
	nominal_voltage 7216.88;
};

object node {
	name R1-12-47-1_node_74_bus102;
	phases ABCN;
	voltage_A 7216.88+0.0j;
	voltage_B -3608.44-6250j;
	voltage_C -3608.44+6250j;
	nominal_voltage 7216.88;
};

object node {
	name R1-12-47-1_node_75_bus102;
	phases ABCN;
	voltage_A 7216.88+0.0j;
	voltage_B -3608.44-6250j;
	voltage_C -3608.44+6250j;
	nominal_voltage 7216.88;
};

object node {
	name R1-12-47-1_node_76_bus102;
	phases ABCN;
	voltage_A 7216.88+0.0j;
	voltage_B -3608.44-6250j;
	voltage_C -3608.44+6250j;
	nominal_voltage 7216.88;
};

object node {
	name R1-12-47-1_node_77_bus102;
	phases ABCN;
	voltage_A 7216.88+0.0j;
	voltage_B -3608.44-6250j;
	voltage_C -3608.44+6250j;
	nominal_voltage 7216.88;
};

object node {
	name R1-12-47-1_node_78_bus102;
	phases BN;
	voltage_B -3608.44-6250j;
	nominal_voltage 7216.88;
};

object node {
	name R1-12-47-1_node_79_bus102;
	phases ABCN;
	voltage_A 7216.88+0.0j;
	voltage_B -3608.44-6250j;
	voltage_C -3608.44+6250j;
	nominal_voltage 7216.88;
};

object node {
	name R1-12-47-1_node_80_bus102;
	phases ABCN;
	voltage_A 7216.88+0.0j;
	voltage_B -3608.44-6250j;
	voltage_C -3608.44+6250j;
	nominal_voltage 7216.88;
};

object node {
	name R1-12-47-1_node_81_bus102;
	phases ABCN;
	voltage_A 7216.88+0.0j;
	voltage_B -3608.44-6250j;
	voltage_C -3608.44+6250j;
	nominal_voltage 7216.88;
};

object node {
	name R1-12-47-1_node_82_bus102;
	phases ABCN;
	voltage_A 7216.88+0.0j;
	voltage_B -3608.44-6250j;
	voltage_C -3608.44+6250j;
	nominal_voltage 7216.88;
};

object node {
	name R1-12-47-1_node_83_bus102;
	phases ABCN;
	voltage_A 7216.88+0.0j;
	voltage_B -3608.44-6250j;
	voltage_C -3608.44+6250j;
	nominal_voltage 7216.88;
};

object node {
	name R1-12-47-1_node_84_bus102;
	phases BN;
	voltage_B -3608.44-6250j;
	nominal_voltage 7216.88;
};

object node {
	name R1-12-47-1_node_85_bus102;
	phases CN;
	voltage_C -3608.44+6250j;
	nominal_voltage 7216.88;
};

object node {
	name R1-12-47-1_node_86_bus102;
	phases BN;
	voltage_B -3608.44-6250j;
	nominal_voltage 7216.88;
};

object node {
	name R1-12-47-1_node_87_bus102;
	phases BN;
	voltage_B -3608.44-6250j;
	nominal_voltage 7216.88;
};

object node {
	name R1-12-47-1_node_88_bus102;
	phases ABCN;
	voltage_A 7216.88+0.0j;
	voltage_B -3608.44-6250j;
	voltage_C -3608.44+6250j;
	nominal_voltage 7216.88;
};

object node {
	name R1-12-47-1_node_89_bus102;
	phases ABCN;
	voltage_A 7216.88+0.0j;
	voltage_B -3608.44-6250j;
	voltage_C -3608.44+6250j;
	nominal_voltage 7216.88;
};

object node {
	name R1-12-47-1_node_90_bus102;
	phases ABCN;
	voltage_A 7216.88+0.0j;
	voltage_B -3608.44-6250j;
	voltage_C -3608.44+6250j;
	nominal_voltage 7216.88;
};

object node {
	name R1-12-47-1_node_91_bus102;
	phases CN;
	voltage_C -3608.44+6250j;
	nominal_voltage 7216.88;
};

object node {
	name R1-12-47-1_node_92_bus102;
	phases CN;
	voltage_C -3608.44+6250j;
	nominal_voltage 7216.88;
};

object node {
	name R1-12-47-1_node_93_bus102;
	phases CN;
	voltage_C -3608.44+6250j;
	nominal_voltage 7216.88;
};

object node {
	name R1-12-47-1_node_94_bus102;
	phases CN;
	voltage_C -3608.44+6250j;
	nominal_voltage 7216.88;
};

object node {
	name R1-12-47-1_node_95_bus102;
	phases CN;
	voltage_C -3608.44+6250j;
	nominal_voltage 7216.88;
};

object node {
	name R1-12-47-1_node_96_bus102;
	phases CN;
	voltage_C -3608.44+6250j;
	nominal_voltage 7216.88;
};

object node {
	name R1-12-47-1_node_97_bus102;
	phases CN;
	voltage_C -3608.44+6250j;
	nominal_voltage 7216.88;
};

object node {
	name R1-12-47-1_node_98_bus102;
	phases CN;
	voltage_C -3608.44+6250j;
	nominal_voltage 7216.88;
};

object node {
	name R1-12-47-1_node_99_bus102;
	phases CN;
	voltage_C -3608.44+6250j;
	nominal_voltage 7216.88;
};

object node {
	name R1-12-47-1_node_100_bus102;
	phases CN;
	voltage_C -3608.44+6250j;
	nominal_voltage 7216.88;
};

object node {
	name R1-12-47-1_node_101_bus102;
	phases CN;
	voltage_C -3608.44+6250j;
	nominal_voltage 7216.88;
};

object node {
	name R1-12-47-1_node_102_bus102;
	phases CN;
	voltage_C -3608.44+6250j;
	nominal_voltage 7216.88;
};

object node {
	name R1-12-47-1_node_103_bus102;
	phases CN;
	voltage_C -3608.44+6250j;
	nominal_voltage 7216.88;
};

object node {
	name R1-12-47-1_node_104_bus102;
	phases CN;
	voltage_C -3608.44+6250j;
	nominal_voltage 7216.88;
};

object node {
	name R1-12-47-1_node_105_bus102;
	phases CN;
	voltage_C -3608.44+6250j;
	nominal_voltage 7216.88;
};

object node {
	name R1-12-47-1_node_106_bus102;
	phases AN;
	voltage_A 7216.88+0.0j;
	nominal_voltage 7216.88;
};

object node {
	name R1-12-47-1_node_107_bus102;
	phases AN;
	voltage_A 7216.88+0.0j;
	nominal_voltage 7216.88;
};

object node {
	name R1-12-47-1_node_108_bus102;
	phases AN;
	voltage_A 7216.88+0.0j;
	nominal_voltage 7216.88;
};

object node {
	name R1-12-47-1_node_109_bus102;
	phases AN;
	voltage_A 7216.88+0.0j;
	nominal_voltage 7216.88;
};

object node {
	name R1-12-47-1_node_110_bus102;
	phases AN;
	voltage_A 7216.88+0.0j;
	nominal_voltage 7216.88;
};

object node {
	name R1-12-47-1_node_111_bus102;
	phases AN;
	voltage_A 7216.88+0.0j;
	nominal_voltage 7216.88;
};

object node {
	name R1-12-47-1_node_112_bus102;
	phases AN;
	voltage_A 7216.88+0.0j;
	nominal_voltage 7216.88;
};

object node {
	name R1-12-47-1_node_113_bus102;
	phases AN;
	voltage_A 7216.88+0.0j;
	nominal_voltage 7216.88;
};

object node {
	name R1-12-47-1_node_114_bus102;
	phases AN;
	voltage_A 7216.88+0.0j;
	nominal_voltage 7216.88;
};

object node {
	name R1-12-47-1_node_115_bus102;
	phases AN;
	voltage_A 7216.88+0.0j;
	nominal_voltage 7216.88;
};

object node {
	name R1-12-47-1_node_116_bus102;
	phases AN;
	voltage_A 7216.88+0.0j;
	nominal_voltage 7216.88;
};

object node {
	name R1-12-47-1_node_117_bus102;
	phases AN;
	voltage_A 7216.88+0.0j;
	nominal_voltage 7216.88;
};

object node {
	name R1-12-47-1_node_118_bus102;
	phases AN;
	voltage_A 7216.88+0.0j;
	nominal_voltage 7216.88;
};

object node {
	name R1-12-47-1_node_119_bus102;
	phases AN;
	voltage_A 7216.88+0.0j;
	nominal_voltage 7216.88;
};

object node {
	name R1-12-47-1_node_120_bus102;
	phases AN;
	voltage_A 7216.88+0.0j;
	nominal_voltage 7216.88;
};

object node {
	name R1-12-47-1_node_121_bus102;
	phases AN;
	voltage_A 7216.88+0.0j;
	nominal_voltage 7216.88;
};

object node {
	name R1-12-47-1_node_122_bus102;
	phases AN;
	voltage_A 7216.88+0.0j;
	nominal_voltage 7216.88;
};

object node {
	name R1-12-47-1_node_123_bus102;
	phases AN;
	voltage_A 7216.88+0.0j;
	nominal_voltage 7216.88;
};

object node {
	name R1-12-47-1_node_124_bus102;
	phases AN;
	voltage_A 7216.88+0.0j;
	nominal_voltage 7216.88;
};

object node {
	name R1-12-47-1_node_125_bus102;
	phases AN;
	voltage_A 7216.88+0.0j;
	nominal_voltage 7216.88;
};

object node {
	name R1-12-47-1_node_126_bus102;
	phases AN;
	voltage_A 7216.88+0.0j;
	nominal_voltage 7216.88;
};

object node {
	name R1-12-47-1_node_127_bus102;
	phases BN;
	voltage_B -3608.44-6250j;
	nominal_voltage 7216.88;
};

object node {
	name R1-12-47-1_node_128_bus102;
	phases BN;
	voltage_B -3608.44-6250j;
	nominal_voltage 7216.88;
};

object node {
	name R1-12-47-1_node_129_bus102;
	phases BN;
	voltage_B -3608.44-6250j;
	nominal_voltage 7216.88;
};

object node {
	name R1-12-47-1_node_130_bus102;
	phases ABCN;
	voltage_A 7216.88+0.0j;
	voltage_B -3608.44-6250j;
	voltage_C -3608.44+6250j;
	nominal_voltage 7216.88;
};

object node {
	name R1-12-47-1_node_131_bus102;
	phases ABCN;
	voltage_A 7216.88+0.0j;
	voltage_B -3608.44-6250j;
	voltage_C -3608.44+6250j;
	nominal_voltage 7216.88;
};

object node {
	name R1-12-47-1_node_132_bus102;
	phases ABCN;
	voltage_A 7216.88+0.0j;
	voltage_B -3608.44-6250j;
	voltage_C -3608.44+6250j;
	nominal_voltage 7216.88;
};

object node {
	name R1-12-47-1_node_133_bus102;
	phases ABCN;
	voltage_A 7216.88+0.0j;
	voltage_B -3608.44-6250j;
	voltage_C -3608.44+6250j;
	nominal_voltage 7216.88;
};

object node {
	name R1-12-47-1_node_134_bus102;
	phases ABCN;
	voltage_A 7216.88+0.0j;
	voltage_B -3608.44-6250j;
	voltage_C -3608.44+6250j;
	nominal_voltage 7216.88;
};

object node {
	name R1-12-47-1_node_135_bus102;
	phases BN;
	voltage_B -3608.44-6250j;
	nominal_voltage 7216.88;
};

object node {
	name R1-12-47-1_node_136_bus102;
	phases BN;
	voltage_B -3608.44-6250j;
	nominal_voltage 7216.88;
};

object node {
	name R1-12-47-1_node_137_bus102;
	phases BN;
	voltage_B -3608.44-6250j;
	nominal_voltage 7216.88;
};

object node {
	name R1-12-47-1_node_138_bus102;
	phases BN;
	voltage_B -3608.44-6250j;
	nominal_voltage 7216.88;
};

object node {
	name R1-12-47-1_node_139_bus102;
	phases ABCN;
	voltage_A 7216.88+0.0j;
	voltage_B -3608.44-6250j;
	voltage_C -3608.44+6250j;
	nominal_voltage 7216.88;
};

object node {
	name R1-12-47-1_node_140_bus102;
	phases ABCN;
	voltage_A 7216.88+0.0j;
	voltage_B -3608.44-6250j;
	voltage_C -3608.44+6250j;
	nominal_voltage 7216.88;
};

object node {
	name R1-12-47-1_node_141_bus102;
	phases AN;
	voltage_A 7216.88+0.0j;
	nominal_voltage 7216.88;
};

object node {
	name R1-12-47-1_node_142_bus102;
	phases AN;
	voltage_A 7216.88+0.0j;
	nominal_voltage 7216.88;
};

object node {
	name R1-12-47-1_node_143_bus102;
	phases AN;
	voltage_A 7216.88+0.0j;
	nominal_voltage 7216.88;
};

object node {
	name R1-12-47-1_node_144_bus102;
	phases AN;
	voltage_A 7216.88+0.0j;
	nominal_voltage 7216.88;
};

object node {
	name R1-12-47-1_node_145_bus102;
	phases AN;
	voltage_A 7216.88+0.0j;
	nominal_voltage 7216.88;
};

object node {
	name R1-12-47-1_node_146_bus102;
	phases AN;
	voltage_A 7216.88+0.0j;
	nominal_voltage 7216.88;
};

object node {
	name R1-12-47-1_node_147_bus102;
	phases AN;
	voltage_A 7216.88+0.0j;
	nominal_voltage 7216.88;
};

object node {
	name R1-12-47-1_node_148_bus102;
	phases AN;
	voltage_A 7216.88+0.0j;
	nominal_voltage 7216.88;
};

object node {
	name R1-12-47-1_node_149_bus102;
	phases AN;
	voltage_A 7216.88+0.0j;
	nominal_voltage 7216.88;
};

object node {
	name R1-12-47-1_node_150_bus102;
	phases AN;
	voltage_A 7216.88+0.0j;
	nominal_voltage 7216.88;
};

object node {
	name R1-12-47-1_node_151_bus102;
	phases AN;
	voltage_A 7216.88+0.0j;
	nominal_voltage 7216.88;
};

object node {
	name R1-12-47-1_node_152_bus102;
	phases AN;
	voltage_A 7216.88+0.0j;
	nominal_voltage 7216.88;
};

object node {
	name R1-12-47-1_node_153_bus102;
	phases AN;
	voltage_A 7216.88+0.0j;
	nominal_voltage 7216.88;
};

object node {
	name R1-12-47-1_node_154_bus102;
	phases AN;
	voltage_A 7216.88+0.0j;
	nominal_voltage 7216.88;
};

object node {
	name R1-12-47-1_node_155_bus102;
	phases AN;
	voltage_A 7216.88+0.0j;
	nominal_voltage 7216.88;
};

object node {
	name R1-12-47-1_node_156_bus102;
	phases AN;
	voltage_A 7216.88+0.0j;
	nominal_voltage 7216.88;
};

object node {
	name R1-12-47-1_node_157_bus102;
	phases AN;
	voltage_A 7216.88+0.0j;
	nominal_voltage 7216.88;
};

object node {
	name R1-12-47-1_node_158_bus102;
	phases AN;
	voltage_A 7216.88+0.0j;
	nominal_voltage 7216.88;
};

object node {
	name R1-12-47-1_node_159_bus102;
	phases AN;
	voltage_A 7216.88+0.0j;
	nominal_voltage 7216.88;
};

object node {
	name R1-12-47-1_node_160_bus102;
	phases AN;
	voltage_A 7216.88+0.0j;
...